data/opendss_case33/scenario_all/Loads.dss
! ===========================================================
! Loads
! Balanced three-phase loads
! ===========================================================

New Load.Load1 phases=3 bus1=bus2.1.2.3 conn=wye kv=12.660000 kw=100.000000 kvar=60.000000 model=1 status=variable
New Load.Load2 phases=3 bus1=bus3.1.2.3 conn=wye kv=12.660000 kw=90.000000 kvar=40.000000 model=1 status=variable
New Load.Load3 phases=3 bus1=bus4.1.2.3 conn=wye kv=12.660000 kw=120.000000 kvar=80.000000 model=1 status=variable
New Load.Load4 phases=3 bus1=bus5.1.2.3 conn=wye kv=12.660000 kw=60.000000 kvar=30.000000 model=1 status=variable
New Load.Load5 phases=3 bus1=bus6.1.2.3 conn=wye kv=12.660000 kw=60.000000 kvar=20.000000 model=1 status=variable
New Load.Load6 phases=3 bus1=bus7.1.2.3 conn=wye kv=12.660000 kw=200.000000 kvar=100.000000 model=1 status=variable
New Load.Load7 phases=3 bus1=bus8.1.2.3 conn=wye kv=12.660000 kw=200.000000 kvar=100.000000 model=1 status=variable
New Load.Load8 phases=3 bus1=bus9.1.2.3 conn=wye kv=12.660000 kw=60.000000 kvar=20.000000 model=1 status=variable
New Load.Load9 phases=3 bus1=bus10.1.2.3 conn=wye kv=12.660000 kw=60.000000 kvar=20.000000 model=1 status=variable
New Load.Load10 phases=3 bus1=bus11.1.2.3 conn=wye kv=12.660000 kw=45.000000 kvar=30.000000 model=1 status=variable
New Load.Load11 phases=3 bus1=bus12.1.2.3 conn=wye kv=12.660000 kw=60.000000 kvar=35.000000 model=1 status=variable
New Load.Load12 phases=3 bus1=bus13.1.2.3 conn=wye kv=12.660000 kw=60.000000 kvar=35.000000 model=1 status=variable
New Load.Load13 phases=3 bus1=bus14.1.2.3 conn=wye kv=12.660000 kw=120.000000 kvar=80.000000 model=1 status=variable
New Load.Load14 phases=3 bus1=bus15.1.2.3 conn=wye kv=12.660000 kw=60.000000 kvar=10.000000 model=1 status=variable
New Load.Load15 phases=3 bus1=bus16.1.2.3 conn=wye kv=12.660000 kw=60.000000 kvar=20.000000 model=1 status=variable
New Load.Load16 phases=3 bus1=bus17.1.2.3 conn=wye kv=12.660000 kw=60.000000 kvar=20.000000 model=1 status=variable
New Load.Load17 phases=3 bus1=bus18.1.2.3 conn=wye kv=12.660000 kw=90.000000 kvar=40.000000 model=1 status=variable
New Load.Load18 phases=3 bus1=bus19.1.2.3 conn=wye kv=12.660000 kw=90.000000 kvar=40.000000 model=1 status=variable
New Load.Load19 phases=3 bus1=bus20.1.2.3 conn=wye kv=12.660000 kw=90.000000 kvar=40.000000 model=1 status=variable
New Load.Load20 phases=3 bus1=bus21.1.2.3 conn=wye kv=12.660000 kw=90.000000 kvar=40.000000 model=1 status=variable
New Load.Load21 phases=3 bus1=bus22.1.2.3 conn=wye kv=12.660000 kw=90.000000 kvar=40.000000 model=1 status=variable
New Load.Load22 phases=3 bus1=bus23.1.2.3 conn=wye kv=12.660000 kw=90.000000 kvar=50.000000 model=1 status=variable
New Load.Load23 phases=3 bus1=bus24.1.2.3 conn=wye kv=12.660000 kw=420.000000 kvar=200.000000 model=1 status=variable
New Load.Load24 phases=3 bus1=bus25.1.2.3 conn=wye kv=12.660000 kw=420.000000 kvar=200.000000 model=1 status=variable
New Load.Load25 phases=3 bus1=bus26.1.2.3 conn=wye kv=12.660000 kw=60.000000 kvar=25.000000 model=1 status=variable
New Load.Load26 phases=3 bus1=bus27.1.2.3 conn=wye kv=12.660000 kw=60.000000 kvar=25.000000 model=1 status=variable
New Load.Load27 phases=3 bus1=bus28.1.2.3 conn=wye kv=12.660000 kw=60.000000 kvar=20.000000 model=1 status=variable
New Load.Load28 phases=3 bus1=bus29.1.2.3 conn=wye kv=12.660000 kw=120.000000 kvar=70.000000 model=1 status=variable
New Load.Load29 phases=3 bus1=bus30.1.2.3 conn=wye kv=12.660000 kw=200.000000 kvar=600.000000 model=1 status=variable
New Load.Load30 phases=3 bus1=bus31.1.2.3 conn=wye kv=12.660000 kw=150.000000 kvar=70.000000 model=1 status=variable
New Load.Load31 phases=3 bus1=bus32.1.2.3 conn=wye kv=12.660000 kw=210.000000 kvar=100.000000 model=1 status=variable
New Load.Load32 phases=3 bus1=bus33.1.2.3 conn=wye kv=12.660000 kw=60.000000 kvar=40.000000 model=1 status=variable
