data/opendss_case33/scenario_all/Fixed_Extra_Loads.dss
! ===========================================================
! 额外固定负荷（不可调度，z=1）
! 综合场景: bus22末端大负荷拉低短支路电压
! ===========================================================

! bus8: 瓶颈后中段固定负荷 (原有 Load7=200kW, 合计 400kW, PF=0.95)
New Load.Fixed_Bus8 phases=3 bus1=bus8.1.2.3 conn=wye kv=12.66 kw=200 kvar=66 model=1 status=variable

! bus22: 短支路末端固定负荷 (原 Load21=90kW, 合计 390kW, 拉低电压触发PV_Bus19支撑)
New Load.Fixed_Bus22 phases=3 bus1=bus22.1.2.3 conn=wye kv=12.66 kw=300 kvar=99 model=1 status=variable

! bus33: 末端分支负荷 (原 Load32=60kW, 合计 160kW, PF=0.95)
New Load.Fixed_Bus33 phases=3 bus1=bus33.1.2.3 conn=wye kv=12.66 kw=100 kvar=33 model=1 status=variable
